$# LS-DYNA Keyword file created by LS-PrePost(R) 2025 R1 (v4.12.0) - 13Sep2024
$# Created on Jul-2-2026 (15:06:19)
*KEYWORD   
*CONTROL_TERMINATION
$#  endtim    endcyc     dtmin    endeng    endmas     nosol
      0.05         0       0.0       0.01.000000E8         0
*DATABASE_BINARY_D3PLOT
$#      dt      lcdt      beam     npltc    psetid
     0.001         0         0         0         0
*CONTACT_AUTOMATIC_SINGLE_SURFACE_ID
$#     cid                                                                 title
         1                                                                      
$#   surfa     surfb  surfatyp  surfbtyp   saboxid   sbboxid      sapr      sbpr
         0         0         0         0         0         0         0         0
$#      fs        fd        dc        vc       vdc    penchk        bt        dt
       0.0       0.0       0.0       0.0       0.0         0       0.01.00000E20
$#    sfsa      sfsb      sast      sbst     sfsat     sfsbt       fsf       vsf
       1.0       1.0       0.0       0.0       1.0       1.0       1.0       1.0
*MAT_JOHNSON_COOK_STOCHASTIC
$#     mid        ro         g         e        pr       dtf        vp    rateop
         1    7850.05.96200E101.61000E11      0.35       0.0       0.0       0.0
$#       a         b         n         c         m        tm        tr      epso
4.000000E81.500000E9       0.4     0.045       1.2    1800.0     293.01.00000E-4
$#      cp        pc     spall        it        d1        d2        d3        d4
     452.0       0.0       2.0       0.0       0.0       0.0       0.0       0.0
$#      d5c2/p/xnp/d      erod     efmin    numint         k      eps1
       0.0       0.0       0.01.00000E-6       0.0       0.0       0.0
*MAT_ELASTIC
$#     mid        ro         e        pr        da        db  not used  not used
         2    7850.02.10000E11       0.3       0.0       0.0         0         0
*NODE
$#   nid               x               y               z      tc      rc
       1            -5.0             0.0             0.0       0       0
       2            -4.9             0.0             0.0       0       0
       3            -4.8             0.0             0.0       0       0
       4            -4.7             0.0             0.0       0       0
       5            -4.6             0.0             0.0       0       0
       6            -4.5             0.0             0.0       0       0
       7            -4.4             0.0             0.0       0       0
       8            -4.3             0.0             0.0       0       0
       9            -4.2             0.0             0.0       0       0
      10            -4.1             0.0             0.0       0       0
      11            -4.0             0.0             0.0       0       0
      12            -3.9             0.0             0.0       0       0
      13            -3.8             0.0             0.0       0       0
      14            -3.7             0.0             0.0       0       0
      15            -3.6             0.0             0.0       0       0
      16            -3.5             0.0             0.0       0       0
      17            -3.4             0.0             0.0       0       0
      18            -3.3             0.0             0.0       0       0
      19            -3.2             0.0             0.0       0       0
      20            -3.1             0.0             0.0       0       0
$ ... 6000 like lines cut
*INITIAL_VELOCITY_GENERATION
$#      id      styp     omega        vx        vy        vz     ivatn      icid
         1         3       0.0       0.0       0.0    -100.0         0         0
$#      xc        yc        zc        nx        ny        nz     phase    irigid
       0.0       0.0       0.0       0.0       0.0       0.0         0         0
*DEFINE_STOCHASTIC_VARIATION
$#   id_sv       pid   pid_typ      icor     var_s     var_f      irng
         1         1         0         0         0         0         0
$#      r1        r2        r3
       0.0       0.0       0.0
$#      r1        r2        r3
       0.0       0.0       0.0
*DEFINE_HAZ_PROPERTIES
$#  id_haz       iop       pid   pid_typ
         1         0         1         0
$#     iss       ifs       isb       ifb       isc       ifc       isw       ifw
         0         0         0         0         0         0         0         0
*EOS_LINEAR_POLYNOMIAL
$#   eosid        c0        c1        c2        c3        c4        c5        c6
         1       0.01.78000E11       0.0       0.0       0.0       0.0       0.0
$#      e0        v0
       0.0       0.0
*PART
$#                                                                         title
boxshell
$#     pid     secid       mid     eosid      hgid      grav    adpopt      tmid
         1         1         1         1         0         0         0         0
*SECTION_SHELL
$#   secid    elform      shrf       nip     propt   qr/irid     icomp     setyp
         1         2       1.0         2       1.0         0         0         1
$#      t1        t2        t3        t4      nloc     marea      idof    edgset
      0.05      0.05      0.05      0.05       1.0       0.0       0.0         0
*PART
$#                                                                         title

$#     pid     secid       mid     eosid      hgid      grav    adpopt      tmid
         2         2         2         0         0         0         0         0
*SECTION_SOLID
$#   secid    elform       aet    unused    unused    unused    cohoff   gaskeit
         2         1         0                                     0.0       0.0
*ELEMENT_SOLID
$#   eid     pid      n1      n2      n3      n4      n5      n6      n7      n8
    4001       2    3677    3576    3577    3678    4042    4043    4044    4045
    4002       2    4042    4043    4044    4045    4046    4047    4048    4049
    4003       2    4046    4047    4048    4049    4050    4051    4052    4053
    4004       2    4050    4051    4052    4053    4054    4055    4056    4057
    4005       2    4054    4055    4056    4057    4058    4059    4060    4061
    4006       2    4058    4059    4060    4061    4062    4063    4064    4065
    4007       2    4062    4063    4064    4065    4066    4067    4068    4069
    4008       2    4066    4067    4068    4069    4070    4071    4072    4073
    4009       2    4070    4071    4072    4073    4074    4075    4076    4077
    4010       2    4074    4075    4076    4077    4078    4079    4080    4081
    4011       2    3678    3577    3578    3679    4045    4044    4082    4083
    4012       2    4045    4044    4082    4083    4049    4048    4084    4085
    4013       2    4049    4048    4084    4085    4053    4052    4086    4087
    4014       2    4053    4052    4086    4087    4057    4056    4088    4089
    4015       2    4057    4056    4088    4089    4061    4060    4090    4091
    4016       2    4061    4060    4090    4091    4065    4064    4092    4093
    4017       2    4065    4064    4092    4093    4069    4068    4094    4095
    4018       2    4069    4068    4094    4095    4073    4072    4096    4097
    4019       2    4073    4072    4096    4097    4077    4076    4098    4099
    4020       2    4077    4076    4098    4099    4081    4080    4100    4101
$ ... 1680 like lines cut
*ELEMENT_SHELL
$#   eid     pid      n1      n2      n3      n4      n5      n6      n7      n8
       1       1       1     102     103       2       0       0       0       0
       2       1       2     103     104       3       0       0       0       0
       3       1       3     104     105       4       0       0       0       0
       4       1       4     105     106       5       0       0       0       0
       5       1       5     106     107       6       0       0       0       0
       6       1       6     107     108       7       0       0       0       0
       7       1       7     108     109       8       0       0       0       0
       8       1       8     109     110       9       0       0       0       0
       9       1       9     110     111      10       0       0       0       0
      10       1      10     111     112      11       0       0       0       0
      11       1      11     112     113      12       0       0       0       0
      12       1      12     113     114      13       0       0       0       0
      13       1      13     114     115      14       0       0       0       0
      14       1      14     115     116      15       0       0       0       0
      15       1      15     116     117      16       0       0       0       0
      16       1      16     117     118      17       0       0       0       0
      17       1      17     118     119      18       0       0       0       0
      18       1      18     119     120      19       0       0       0       0
      19       1      19     120     121      20       0       0       0       0
      20       1      20     121     122      21       0       0       0       0
$ ... 3980 like lines cut
*RIGIDWALL_PLANAR_ID
$#      id                                                                 title
         1                                                                      
$#    nsid    nsidex     boxid    offset     birth     death     rwksf
         0         0         0       0.0       0.01.00000E20       1.0
$#      xt        yt        zt        xh        yh        zh      fric      wvel
       0.0       0.0      -0.2       0.0       0.0       0.0       0.0       0.0
*SET_NODE_LIST
$#     sid       da1       da2       da3       da4    solver       its         -
         1       0.0       0.0       0.0       0.0MECH               1          
$#    nid1      nid2      nid3      nid4      nid5      nid6      nid7      nid8
         1         2         3         4         5         6         7         8
         9        10        11        12        13        14        15        16
        17        18        19        20        21        22        23        24
        25        26        27        28        29        30        31        32
        33        34        35        36        37        38        39        40
        41        42        43        44        45        46        47        48
        49        50        51        52        53        54        55        56
        57        58        59        60        61        62        63        64
        65        66        67        68        69        70        71        72
        73        74        75        76        77        78        79        80
        81        82        83        84        85        86        87        88
        89        90        91        92        93        94        95        96
        97        98        99       100       101       102       103       104
       105       106       107       108       109       110       111       112
       113       114       115       116       117       118       119       120
       121       122       123       124       125       126       127       128
       129       130       131       132       133       134       135       136
       137       138       139       140       141       142       143       144
       145       146       147       148       149       150       151       152
       153       154       155       156       157       158       159       160
$ ... 733 like lines cut
*END
